Circuit: * D:\eslab4.asc

WARNING: Less than two connections to node NC_01.  This node is used by R:U1:OUT5:OUT.
Direct Newton iteration for .op point succeeded.
Ignoring empty pin current: Ix(u1:vcc)
Ignoring empty pin current: Ix(u1:vcc)

Date: Tue Oct 18 14:37:42 2016
Total elapsed time: 0.356 seconds.

tnom = 27
temp = 27
method = modified trap
totiter = 22229
traniter = 22219
tranpoints = 6029
accept = 4865
rejected = 1164
matrix size = 101
fillins = 3
solver = Normal
Thread vector: 5.9/4.0[4] 2.4/1.9[4] 1.6/1.3[4] 0.2/0.7[1]  2592/500
Matrix Compiler1: 2.48 KB object code size  1.0/0.6/[0.4]
Matrix Compiler2: 4.85 KB object code size  0.7/1.1/[0.5]


